// -*- C++ -*-
// File generated by PyFoam - sorry for the ugliness

FoamFile
{
 version 2.0;
 format ascii;
 arch "LSB;label=32;scalar=64";
 class polyBoundaryMesh;
 location "constant/polyMesh";
 object boundary;
}

(
  back

  {
    type empty;
    physicalType patch;
    nFaces 539;
    startFace 33031;

  }
  overset2

  {
    type overset;
    physicalType patch;
    nFaces 2118;
    startFace 33570;

  }
  oversetWall

  {
    type slip;
    physicalType patch;
    nFaces 1617;
    startFace 35688;

  }
  front

  {
    type wall;
    physicalType patch;
    nFaces 602;
    startFace 37305;

  }
)


// ************************************************************************* //