// -*- C++ -*-
// File generated by PyFoam - sorry for the ugliness

FoamFile
{
 version 2.0;
 format ascii;
 arch "LSB;label=32;scalar=64";
 class polyBoundaryMesh;
 location "constant/polyMesh";
 object boundary;
}

205.0
(
  back

  {
    type empty;
    physicalType patch;
    nFaces 395;
    startFace 33273;

  }
  arcStart34

  {
    type patch;
    physicalType patch;
    nFaces 38;
    startFace 33668;

  }
  arc4_1

  {
    type patch;
    physicalType patch;
    nFaces 38;
    startFace 33706;

  }
  arc4_2

  {
    type patch;
    physicalType patch;
    nFaces 38;
    startFace 33744;

  }
  arc4_3

  {
    type patch;
    physicalType patch;
    nFaces 38;
    startFace 33782;

  }
  arc4_4

  {
    type patch;
    physicalType patch;
    nFaces 38;
    startFace 33820;

  }
  arc4_5

  {
    type patch;
    physicalType patch;
    nFaces 38;
    startFace 33858;

  }
  arc4_6

  {
    type patch;
    physicalType patch;
    nFaces 38;
    startFace 33896;

  }
  arc4_7

  {
    type patch;
    physicalType patch;
    nFaces 38;
    startFace 33934;

  }
  arc4_8

  {
    type patch;
    physicalType patch;
    nFaces 38;
    startFace 33972;

  }
  arc4_9

  {
    type patch;
    physicalType patch;
    nFaces 38;
    startFace 34010;

  }
  arc4_10

  {
    type patch;
    physicalType patch;
    nFaces 38;
    startFace 34048;

  }
  arc4_11

  {
    type patch;
    physicalType patch;
    nFaces 38;
    startFace 34086;

  }
  arc4_12

  {
    type patch;
    physicalType patch;
    nFaces 38;
    startFace 34124;

  }
  arc4_13

  {
    type patch;
    physicalType patch;
    nFaces 38;
    startFace 34162;

  }
  arc4_14

  {
    type patch;
    physicalType patch;
    nFaces 38;
    startFace 34200;

  }
  arc4_15

  {
    type patch;
    physicalType patch;
    nFaces 38;
    startFace 34238;

  }
  arc4_16

  {
    type patch;
    physicalType patch;
    nFaces 38;
    startFace 34276;

  }
  arc4_17

  {
    type patch;
    physicalType patch;
    nFaces 38;
    startFace 34314;

  }
  arc4_18

  {
    type patch;
    physicalType patch;
    nFaces 38;
    startFace 34352;

  }
  arc4_19

  {
    type patch;
    physicalType patch;
    nFaces 38;
    startFace 34390;

  }
  arc4_20

  {
    type patch;
    physicalType patch;
    nFaces 38;
    startFace 34428;

  }
  arc4_21

  {
    type patch;
    physicalType patch;
    nFaces 38;
    startFace 34466;

  }
  arc4_22

  {
    type patch;
    physicalType patch;
    nFaces 38;
    startFace 34504;

  }
  arc4_23

  {
    type patch;
    physicalType patch;
    nFaces 38;
    startFace 34542;

  }
  arc4_24

  {
    type patch;
    physicalType patch;
    nFaces 38;
    startFace 34580;

  }
  arc4_25

  {
    type patch;
    physicalType patch;
    nFaces 38;
    startFace 34618;

  }
  arc4_26

  {
    type patch;
    physicalType patch;
    nFaces 38;
    startFace 34656;

  }
  arc4_27

  {
    type patch;
    physicalType patch;
    nFaces 38;
    startFace 34694;

  }
  arc4_28

  {
    type patch;
    physicalType patch;
    nFaces 38;
    startFace 34732;

  }
  arc4_29

  {
    type patch;
    physicalType patch;
    nFaces 38;
    startFace 34770;

  }
  arc4_30

  {
    type patch;
    physicalType patch;
    nFaces 38;
    startFace 34808;

  }
  arc4_31

  {
    type patch;
    physicalType patch;
    nFaces 38;
    startFace 34846;

  }
  arc4_32

  {
    type patch;
    physicalType patch;
    nFaces 38;
    startFace 34884;

  }
  arc4_33

  {
    type patch;
    physicalType patch;
    nFaces 38;
    startFace 34922;

  }
  arc4_34

  {
    type patch;
    physicalType patch;
    nFaces 38;
    startFace 34960;

  }
  arc4_35

  {
    type patch;
    physicalType patch;
    nFaces 38;
    startFace 34998;

  }
  arc4_36

  {
    type patch;
    physicalType patch;
    nFaces 38;
    startFace 35036;

  }
  arc4_37

  {
    type patch;
    physicalType patch;
    nFaces 38;
    startFace 35074;

  }
  arc4_38

  {
    type patch;
    physicalType patch;
    nFaces 38;
    startFace 35112;

  }
  arc4_39

  {
    type patch;
    physicalType patch;
    nFaces 38;
    startFace 35150;

  }
  arc4_40

  {
    type patch;
    physicalType patch;
    nFaces 38;
    startFace 35188;

  }
  arc4_41

  {
    type patch;
    physicalType patch;
    nFaces 38;
    startFace 35226;

  }
  arc4_42

  {
    type patch;
    physicalType patch;
    nFaces 38;
    startFace 35264;

  }
  arc4_43

  {
    type patch;
    physicalType patch;
    nFaces 38;
    startFace 35302;

  }
  arc4_44

  {
    type patch;
    physicalType patch;
    nFaces 38;
    startFace 35340;

  }
  arc4_45

  {
    type patch;
    physicalType patch;
    nFaces 38;
    startFace 35378;

  }
  arc4_46

  {
    type patch;
    physicalType patch;
    nFaces 38;
    startFace 35416;

  }
  arc4_47

  {
    type patch;
    physicalType patch;
    nFaces 38;
    startFace 35454;

  }
  arc4_48

  {
    type patch;
    physicalType patch;
    nFaces 38;
    startFace 35492;

  }
  arc4_49

  {
    type patch;
    physicalType patch;
    nFaces 38;
    startFace 35530;

  }
  arc4_50

  {
    type patch;
    physicalType patch;
    nFaces 38;
    startFace 35568;

  }
  arcEnd34

  {
    type patch;
    physicalType patch;
    nFaces 38;
    startFace 35606;

  }
  arc3_50

  {
    type patch;
    physicalType patch;
    nFaces 38;
    startFace 35644;

  }
  arc3_49

  {
    type patch;
    physicalType patch;
    nFaces 38;
    startFace 35682;

  }
  arc3_48

  {
    type patch;
    physicalType patch;
    nFaces 38;
    startFace 35720;

  }
  arc3_47

  {
    type patch;
    physicalType patch;
    nFaces 38;
    startFace 35758;

  }
  arc3_46

  {
    type patch;
    physicalType patch;
    nFaces 38;
    startFace 35796;

  }
  arc3_45

  {
    type patch;
    physicalType patch;
    nFaces 38;
    startFace 35834;

  }
  arc3_44

  {
    type patch;
    physicalType patch;
    nFaces 38;
    startFace 35872;

  }
  arc3_43

  {
    type patch;
    physicalType patch;
    nFaces 38;
    startFace 35910;

  }
  arc3_42

  {
    type patch;
    physicalType patch;
    nFaces 38;
    startFace 35948;

  }
  arc3_41

  {
    type patch;
    physicalType patch;
    nFaces 38;
    startFace 35986;

  }
  arc3_40

  {
    type patch;
    physicalType patch;
    nFaces 38;
    startFace 36024;

  }
  arc3_39

  {
    type patch;
    physicalType patch;
    nFaces 38;
    startFace 36062;

  }
  arc3_38

  {
    type patch;
    physicalType patch;
    nFaces 38;
    startFace 36100;

  }
  arc3_37

  {
    type patch;
    physicalType patch;
    nFaces 38;
    startFace 36138;

  }
  arc3_36

  {
    type patch;
    physicalType patch;
    nFaces 38;
    startFace 36176;

  }
  arc3_35

  {
    type patch;
    physicalType patch;
    nFaces 38;
    startFace 36214;

  }
  arc3_34

  {
    type patch;
    physicalType patch;
    nFaces 38;
    startFace 36252;

  }
  arc3_33

  {
    type patch;
    physicalType patch;
    nFaces 38;
    startFace 36290;

  }
  arc3_32

  {
    type patch;
    physicalType patch;
    nFaces 38;
    startFace 36328;

  }
  arc3_31

  {
    type patch;
    physicalType patch;
    nFaces 38;
    startFace 36366;

  }
  arc3_30

  {
    type patch;
    physicalType patch;
    nFaces 38;
    startFace 36404;

  }
  arc3_29

  {
    type patch;
    physicalType patch;
    nFaces 38;
    startFace 36442;

  }
  arc3_28

  {
    type patch;
    physicalType patch;
    nFaces 38;
    startFace 36480;

  }
  arc3_27

  {
    type patch;
    physicalType patch;
    nFaces 38;
    startFace 36518;

  }
  arc3_26

  {
    type patch;
    physicalType patch;
    nFaces 38;
    startFace 36556;

  }
  arc3_25

  {
    type patch;
    physicalType patch;
    nFaces 38;
    startFace 36594;

  }
  arc3_24

  {
    type patch;
    physicalType patch;
    nFaces 38;
    startFace 36632;

  }
  arc3_23

  {
    type patch;
    physicalType patch;
    nFaces 38;
    startFace 36670;

  }
  arc3_22

  {
    type patch;
    physicalType patch;
    nFaces 38;
    startFace 36708;

  }
  arc3_21

  {
    type patch;
    physicalType patch;
    nFaces 38;
    startFace 36746;

  }
  arc3_20

  {
    type patch;
    physicalType patch;
    nFaces 38;
    startFace 36784;

  }
  arc3_19

  {
    type patch;
    physicalType patch;
    nFaces 38;
    startFace 36822;

  }
  arc3_18

  {
    type patch;
    physicalType patch;
    nFaces 38;
    startFace 36860;

  }
  arc3_17

  {
    type patch;
    physicalType patch;
    nFaces 38;
    startFace 36898;

  }
  arc3_16

  {
    type patch;
    physicalType patch;
    nFaces 38;
    startFace 36936;

  }
  arc3_15

  {
    type patch;
    physicalType patch;
    nFaces 38;
    startFace 36974;

  }
  arc3_14

  {
    type patch;
    physicalType patch;
    nFaces 38;
    startFace 37012;

  }
  arc3_13

  {
    type patch;
    physicalType patch;
    nFaces 38;
    startFace 37050;

  }
  arc3_12

  {
    type patch;
    physicalType patch;
    nFaces 38;
    startFace 37088;

  }
  arc3_11

  {
    type patch;
    physicalType patch;
    nFaces 38;
    startFace 37126;

  }
  arc3_10

  {
    type patch;
    physicalType patch;
    nFaces 38;
    startFace 37164;

  }
  arc3_9

  {
    type patch;
    physicalType patch;
    nFaces 38;
    startFace 37202;

  }
  arc3_8

  {
    type patch;
    physicalType patch;
    nFaces 38;
    startFace 37240;

  }
  arc3_7

  {
    type patch;
    physicalType patch;
    nFaces 38;
    startFace 37278;

  }
  arc3_6

  {
    type patch;
    physicalType patch;
    nFaces 38;
    startFace 37316;

  }
  arc3_5

  {
    type patch;
    physicalType patch;
    nFaces 38;
    startFace 37354;

  }
  arc3_4

  {
    type patch;
    physicalType patch;
    nFaces 38;
    startFace 37392;

  }
  arc3_3

  {
    type patch;
    physicalType patch;
    nFaces 38;
    startFace 37430;

  }
  arc3_2

  {
    type patch;
    physicalType patch;
    nFaces 38;
    startFace 37468;

  }
  arc3_1

  {
    type patch;
    physicalType patch;
    nFaces 38;
    startFace 37506;

  }
  front

  {
    type patch;
    physicalType patch;
    nFaces 395;
    startFace 37544;

  }
  arcStart12

  {
    type patch;
    physicalType patch;
    nFaces 38;
    startFace 37939;

  }
  arc2_1

  {
    type patch;
    physicalType patch;
    nFaces 38;
    startFace 37977;

  }
  arc2_2

  {
    type patch;
    physicalType patch;
    nFaces 38;
    startFace 38015;

  }
  arc2_3

  {
    type patch;
    physicalType patch;
    nFaces 38;
    startFace 38053;

  }
  arc2_4

  {
    type patch;
    physicalType patch;
    nFaces 38;
    startFace 38091;

  }
  arc2_5

  {
    type patch;
    physicalType patch;
    nFaces 38;
    startFace 38129;

  }
  arc2_6

  {
    type patch;
    physicalType patch;
    nFaces 38;
    startFace 38167;

  }
  arc2_7

  {
    type patch;
    physicalType patch;
    nFaces 38;
    startFace 38205;

  }
  arc2_8

  {
    type patch;
    physicalType patch;
    nFaces 38;
    startFace 38243;

  }
  arc2_9

  {
    type patch;
    physicalType patch;
    nFaces 38;
    startFace 38281;

  }
  arc2_10

  {
    type patch;
    physicalType patch;
    nFaces 38;
    startFace 38319;

  }
  arc2_11

  {
    type patch;
    physicalType patch;
    nFaces 38;
    startFace 38357;

  }
  arc2_12

  {
    type patch;
    physicalType patch;
    nFaces 38;
    startFace 38395;

  }
  arc2_13

  {
    type patch;
    physicalType patch;
    nFaces 38;
    startFace 38433;

  }
  arc2_14

  {
    type patch;
    physicalType patch;
    nFaces 38;
    startFace 38471;

  }
  arc2_15

  {
    type patch;
    physicalType patch;
    nFaces 38;
    startFace 38509;

  }
  arc2_16

  {
    type patch;
    physicalType patch;
    nFaces 38;
    startFace 38547;

  }
  arc2_17

  {
    type patch;
    physicalType patch;
    nFaces 38;
    startFace 38585;

  }
  arc2_18

  {
    type patch;
    physicalType patch;
    nFaces 38;
    startFace 38623;

  }
  arc2_19

  {
    type patch;
    physicalType patch;
    nFaces 38;
    startFace 38661;

  }
  arc2_20

  {
    type patch;
    physicalType patch;
    nFaces 38;
    startFace 38699;

  }
  arc2_21

  {
    type patch;
    physicalType patch;
    nFaces 38;
    startFace 38737;

  }
  arc2_22

  {
    type patch;
    physicalType patch;
    nFaces 38;
    startFace 38775;

  }
  arc2_23

  {
    type patch;
    physicalType patch;
    nFaces 38;
    startFace 38813;

  }
  arc2_24

  {
    type patch;
    physicalType patch;
    nFaces 38;
    startFace 38851;

  }
  arc2_25

  {
    type patch;
    physicalType patch;
    nFaces 38;
    startFace 38889;

  }
  arc2_26

  {
    type patch;
    physicalType patch;
    nFaces 38;
    startFace 38927;

  }
  arc2_27

  {
    type patch;
    physicalType patch;
    nFaces 38;
    startFace 38965;

  }
  arc2_28

  {
    type patch;
    physicalType patch;
    nFaces 38;
    startFace 39003;

  }
  arc2_29

  {
    type patch;
    physicalType patch;
    nFaces 38;
    startFace 39041;

  }
  arc2_30

  {
    type patch;
    physicalType patch;
    nFaces 38;
    startFace 39079;

  }
  arc2_31

  {
    type patch;
    physicalType patch;
    nFaces 38;
    startFace 39117;

  }
  arc2_32

  {
    type patch;
    physicalType patch;
    nFaces 38;
    startFace 39155;

  }
  arc2_33

  {
    type patch;
    physicalType patch;
    nFaces 38;
    startFace 39193;

  }
  arc2_34

  {
    type patch;
    physicalType patch;
    nFaces 38;
    startFace 39231;

  }
  arc2_35

  {
    type patch;
    physicalType patch;
    nFaces 38;
    startFace 39269;

  }
  arc2_36

  {
    type patch;
    physicalType patch;
    nFaces 38;
    startFace 39307;

  }
  arc2_37

  {
    type patch;
    physicalType patch;
    nFaces 38;
    startFace 39345;

  }
  arc2_38

  {
    type patch;
    physicalType patch;
    nFaces 38;
    startFace 39383;

  }
  arc2_39

  {
    type patch;
    physicalType patch;
    nFaces 38;
    startFace 39421;

  }
  arc2_40

  {
    type patch;
    physicalType patch;
    nFaces 38;
    startFace 39459;

  }
  arc2_41

  {
    type patch;
    physicalType patch;
    nFaces 38;
    startFace 39497;

  }
  arc2_42

  {
    type patch;
    physicalType patch;
    nFaces 38;
    startFace 39535;

  }
  arc2_43

  {
    type patch;
    physicalType patch;
    nFaces 38;
    startFace 39573;

  }
  arc2_44

  {
    type patch;
    physicalType patch;
    nFaces 38;
    startFace 39611;

  }
  arc2_45

  {
    type patch;
    physicalType patch;
    nFaces 38;
    startFace 39649;

  }
  arc2_46

  {
    type patch;
    physicalType patch;
    nFaces 38;
    startFace 39687;

  }
  arc2_47

  {
    type patch;
    physicalType patch;
    nFaces 38;
    startFace 39725;

  }
  arc2_48

  {
    type patch;
    physicalType patch;
    nFaces 38;
    startFace 39763;

  }
  arc2_49

  {
    type patch;
    physicalType patch;
    nFaces 38;
    startFace 39801;

  }
  arc2_50

  {
    type patch;
    physicalType patch;
    nFaces 38;
    startFace 39839;

  }
  arcEnd12

  {
    type patch;
    physicalType patch;
    nFaces 38;
    startFace 39877;

  }
  arc1_49

  {
    type patch;
    physicalType patch;
    nFaces 38;
    startFace 39915;

  }
  arc1_48

  {
    type patch;
    physicalType patch;
    nFaces 38;
    startFace 39953;

  }
  arc1_47

  {
    type patch;
    physicalType patch;
    nFaces 38;
    startFace 39991;

  }
  arc1_46

  {
    type patch;
    physicalType patch;
    nFaces 38;
    startFace 40029;

  }
  arc1_45

  {
    type patch;
    physicalType patch;
    nFaces 38;
    startFace 40067;

  }
  arc1_44

  {
    type patch;
    physicalType patch;
    nFaces 38;
    startFace 40105;

  }
  arc1_43

  {
    type patch;
    physicalType patch;
    nFaces 38;
    startFace 40143;

  }
  arc1_42

  {
    type patch;
    physicalType patch;
    nFaces 38;
    startFace 40181;

  }
  arc1_41

  {
    type patch;
    physicalType patch;
    nFaces 38;
    startFace 40219;

  }
  arc1_40

  {
    type patch;
    physicalType patch;
    nFaces 38;
    startFace 40257;

  }
  arc1_39

  {
    type patch;
    physicalType patch;
    nFaces 38;
    startFace 40295;

  }
  arc1_38

  {
    type patch;
    physicalType patch;
    nFaces 38;
    startFace 40333;

  }
  arc1_37

  {
    type patch;
    physicalType patch;
    nFaces 38;
    startFace 40371;

  }
  arc1_36

  {
    type patch;
    physicalType patch;
    nFaces 38;
    startFace 40409;

  }
  arc1_35

  {
    type patch;
    physicalType patch;
    nFaces 38;
    startFace 40447;

  }
  arc1_34

  {
    type patch;
    physicalType patch;
    nFaces 38;
    startFace 40485;

  }
  arc1_33

  {
    type patch;
    physicalType patch;
    nFaces 38;
    startFace 40523;

  }
  arc1_32

  {
    type patch;
    physicalType patch;
    nFaces 38;
    startFace 40561;

  }
  arc1_31

  {
    type patch;
    physicalType patch;
    nFaces 38;
    startFace 40599;

  }
  arc1_30

  {
    type patch;
    physicalType patch;
    nFaces 38;
    startFace 40637;

  }
  arc1_29

  {
    type patch;
    physicalType patch;
    nFaces 38;
    startFace 40675;

  }
  arc1_28

  {
    type patch;
    physicalType patch;
    nFaces 38;
    startFace 40713;

  }
  arc1_27

  {
    type patch;
    physicalType patch;
    nFaces 38;
    startFace 40751;

  }
  arc1_26

  {
    type patch;
    physicalType patch;
    nFaces 38;
    startFace 40789;

  }
  arc1_25

  {
    type patch;
    physicalType patch;
    nFaces 38;
    startFace 40827;

  }
  arc1_24

  {
    type patch;
    physicalType patch;
    nFaces 38;
    startFace 40865;

  }
  arc1_23

  {
    type patch;
    physicalType patch;
    nFaces 38;
    startFace 40903;

  }
  arc1_22

  {
    type patch;
    physicalType patch;
    nFaces 38;
    startFace 40941;

  }
  arc1_21

  {
    type patch;
    physicalType patch;
    nFaces 38;
    startFace 40979;

  }
  arc1_20

  {
    type patch;
    physicalType patch;
    nFaces 38;
    startFace 41017;

  }
  arc1_19

  {
    type patch;
    physicalType patch;
    nFaces 38;
    startFace 41055;

  }
  arc1_18

  {
    type patch;
    physicalType patch;
    nFaces 38;
    startFace 41093;

  }
  arc1_17

  {
    type patch;
    physicalType patch;
    nFaces 38;
    startFace 41131;

  }
  arc1_16

  {
    type patch;
    physicalType patch;
    nFaces 38;
    startFace 41169;

  }
  arc1_15

  {
    type patch;
    physicalType patch;
    nFaces 38;
    startFace 41207;

  }
  arc1_14

  {
    type patch;
    physicalType patch;
    nFaces 38;
    startFace 41245;

  }
  arc1_13

  {
    type patch;
    physicalType patch;
    nFaces 38;
    startFace 41283;

  }
  arc1_12

  {
    type patch;
    physicalType patch;
    nFaces 38;
    startFace 41321;

  }
  arc1_11

  {
    type patch;
    physicalType patch;
    nFaces 38;
    startFace 41359;

  }
  arc1_10

  {
    type patch;
    physicalType patch;
    nFaces 38;
    startFace 41397;

  }
  arc1_9

  {
    type patch;
    physicalType patch;
    nFaces 38;
    startFace 41435;

  }
  arc1_8

  {
    type patch;
    physicalType patch;
    nFaces 38;
    startFace 41473;

  }
  arc1_7

  {
    type patch;
    physicalType patch;
    nFaces 38;
    startFace 41511;

  }
  arc1_6

  {
    type patch;
    physicalType patch;
    nFaces 38;
    startFace 41549;

  }
  arc1_5

  {
    type patch;
    physicalType patch;
    nFaces 38;
    startFace 41587;

  }
  arc1_4

  {
    type patch;
    physicalType patch;
    nFaces 38;
    startFace 41625;

  }
  arc1_3

  {
    type patch;
    physicalType patch;
    nFaces 38;
    startFace 41663;

  }
  arc1_2

  {
    type patch;
    physicalType patch;
    nFaces 38;
    startFace 41701;

  }
  arc1_1

  {
    type wall;
    physicalType patch;
    nFaces 38;
    startFace 41739;

  }
)


// ************************************************************************* //