// -*- C++ -*-
// File generated by PyFoam - sorry for the ugliness

FoamFile
{
 version 2.0;
 format ascii;
 arch "LSB;label=32;scalar=64";
 class polyBoundaryMesh;
 location "constant/polyMesh";
 object boundary;
}

(
  back

  {
    type empty;
    physicalType patch;
    nFaces 2964;
    startFace 224356;

  }
  Surface

  {
    type empty;
    physicalType patch;
    nFaces 0;
    startFace 227320;

  }
  workpiece

  {
    type wall;
    physicalType patch;
    nFaces 1596;
    startFace 227320;

  }
  tool

  {
    type wall;
    physicalType patch;
    nFaces 234;
    startFace 228916;

  }
  wall

  {
    type wall;
    physicalType patch;
    nFaces 1066;
    startFace 229150;

  }
  inlet

  {
    type patch;
    physicalType patch;
    nFaces 78;
    startFace 230216;

  }
  outlet

  {
    type wall;
    physicalType patch;
    nFaces 169;
    startFace 230294;

  }
  front

  {
    type wall;
    physicalType patch;
    nFaces 2964;
    startFace 230463;

  }
  outlet_side_1

  {
    type empty;
    physicalType patch;
    nFaces 0;
    startFace 233427;

  }
  outlet_side_2

  {
    type empty;
    physicalType patch;
    nFaces 0;
    startFace 233427;

  }
  outlet_side_3

  {
    type empty;
    physicalType patch;
    nFaces 0;
    startFace 233427;

  }
  outlet_side_4

  {
    type empty;
    physicalType patch;
    nFaces 0;
    startFace 233427;

  }
  outlet_side_5

  {
    type empty;
    physicalType patch;
    nFaces 0;
    startFace 233427;

  }
  outlet_side_6

  {
    type empty;
    physicalType patch;
    nFaces 0;
    startFace 233427;

  }
  outlet_side_7

  {
    type empty;
    physicalType patch;
    nFaces 0;
    startFace 233427;

  }
  outlet_side_8

  {
    type empty;
    physicalType patch;
    nFaces 0;
    startFace 233427;

  }
  outlet_empty

  {
    type slip;
    physicalType patch;
    nFaces 3111;
    startFace 233427;

  }
  outlet_wall

  {
    type slip;
    physicalType patch;
    nFaces 2023;
    startFace 236538;

  }
  outlet_ext

  {
    type patch;
    physicalType patch;
    nFaces 952;
    startFace 238561;

  }
)


// ************************************************************************* //