/*--------------------------------*- C++ -*----------------------------------*\
| =========                 |                                                 |
| \\      /  F ield         | OpenFOAM: The Open Source CFD Toolbox           |
|  \\    /   O peration     | Version:  2206                                  |
|   \\  /    A nd           | Website:  www.openfoam.com                      |
|    \\/     M anipulation  |                                                 |
\*---------------------------------------------------------------------------*/
FoamFile
{
    version     2.0;
    format      ascii;
    arch        "LSB;label=32;scalar=64";
    class       polyBoundaryMesh;
    location    "constant/polyMesh";
    object      boundary;
}
// * * * * * * * * * * * * * * * * * * * * * * * * * * * * * * * * * * * * * //

4
(
    wall
    {
        type            patch;
        physicalType    patch;
        nFaces          58;
        startFace       1905;
    }
    inlet
    {
        type            patch;
        physicalType    patch;
        nFaces          19;
        startFace       1963;
    }
    outlet
    {
        type            patch;
        physicalType    patch;
        nFaces          19;
        startFace       1982;
    }
    defaultFaces
    {
        type            patch;
        nFaces          2604;
        startFace       2001;
    }
)

// ************************************************************************* //
