// -*- C++ -*-
// File generated by PyFoam - sorry for the ugliness

FoamFile
{
 version 2.0;
 format ascii;
 arch "LSB;label=32;scalar=64";
 class polyBoundaryMesh;
 location "constant/polyMesh";
 object boundary;
}

(
  back

  {
    type empty;
    physicalType patch;
    nFaces 224;
    startFace 21056;

  }
  chipWall

  {
    type wall;
    physicalType patch;
    nFaces 3952;
    startFace 21280;

  }
  front

  {
    type wall;
    physicalType patch;
    nFaces 224;
    startFace 25232;

  }
  chipOverset

  {
    type overset;
    physicalType patch;
    nFaces 4522;
    startFace 25456;

  }
)


// ************************************************************************* //