/*--------------------------------*- C++ -*----------------------------------*\
| =========                 |                                                 |
| \\      /  F ield         | OpenFOAM: The Open Source CFD Toolbox           |
|  \\    /   O peration     | Version:  v2012                                 |
|   \\  /    A nd           | Website:  www.openfoam.com                      |
|    \\/     M anipulation  |                                                 |
\*---------------------------------------------------------------------------*/
FoamFile
{
    version     2.0;
    format      ascii;
    class       volScalarField;
    object      epsilon;
}
// * * * * * * * * * * * * * * * * * * * * * * * * * * * * * * * * * * * * * //

dimensions      [ 0 2 -3 0 0 0 0 ];

internalField   uniform 0.1;

boundaryField
{
    ".*"
    {
        type            epsilonWallFunction;
        value           $internalField;
    }

	inlet
	{
        type            turbulentMixingLengthDissipationRateInlet;
        mixingLength    0.03;
        value       	uniform 0.1;  
	}

	outlet
	{
        type            inletOutlet;
		inletValue		$internalField;
		value			$internalField;
    }
    
    "overIn1|overIn2|overIn3|overIn4|overIn5|overIn6|overIn7|overIn8|overIn9|overIn10|overIn11|overIn12|overIn13|overIn14|overIn15|overOut1|overOut2|overOut3|overOut4|overOut5|overOut6|overOut7|overOut8|overOut9|overOut10|overOut11|overOut12|overOut13|overOut14|overOut15"
    {
        type            overset;
    }
	
}

// ************************************************************************* //
