// -*- C++ -*-
// File generated by PyFoam - sorry for the ugliness

FoamFile
{
 version 2.0;
 format ascii;
 arch "LSB;label=32;scalar=64";
 class polyBoundaryMesh;
 location "constant/polyMesh";
 object boundary;
}

(
  back

  {
    type empty;
    physicalType patch;
    nFaces 26270;
    startFace 824151;

  }
  Overset

  {
    type overset;
    physicalType patch;
    nFaces 6708;
    startFace 850421;

  }
  front

  {
    type wall;
    physicalType patch;
    nFaces 26270;
    startFace 857129;

  }
)


// ************************************************************************* //
